Test_Network/condensed/network_10/Feeder_1/LinesUnq_pruned.txt
New Line.LINE101_1 Bus1=101_1 Bus2=101_2 phases=3 Linecode=4c_.25 Length=0.98668 Units=m
New Line.LINE101_2 Bus1=101_2 Bus2=101_3 phases=3 Linecode=4c_.25 Length=0.085494 Units=m
New Line.LINE101_3 Bus1=101_3 Bus2=101_4 phases=3 Linecode=4c_.25 Length=0.1414 Units=m
New Line.LINE101_4 Bus1=101_4 Bus2=101_5 phases=3 Linecode=4c_.25 Length=0.1009 Units=m
New Line.LINE101_5 Bus1=101_5 Bus2=101_6 phases=3 Linecode=4c_.25 Length=0.097062 Units=m
New Line.LINE101_6 Bus1=101_6 Bus2=101_7 phases=3 Linecode=4c_.25 Length=0.13025 Units=m
New Line.LINE101_7 Bus1=101_7 Bus2=101_8 phases=3 Linecode=4c_.25 Length=0.129 Units=m
New Line.LINE101_8 Bus1=101_8 Bus2=101_9 phases=3 Linecode=4c_.25 Length=0.10502 Units=m
New Line.LINE101_9 Bus1=101_9 Bus2=101_10 phases=3 Linecode=4c_.25 Length=0.53928 Units=m
New Line.LINE101_10 Bus1=101_10 Bus2=101_11 phases=3 Linecode=4c_.25 Length=0.16256 Units=m
New Line.LINE101_11 Bus1=101_11 Bus2=101_12 phases=3 Linecode=4c_.25 Length=0.164 Units=m
New Line.LINE101_12 Bus1=101_12 Bus2=101_13 phases=3 Linecode=4c_.25 Length=0.15146 Units=m
New Line.LINE101_13 Bus1=101_13 Bus2=101_14 phases=3 Linecode=4c_.25 Length=0.15033 Units=m
New Line.LINE101_14 Bus1=101_14 Bus2=101_15 phases=3 Linecode=4c_.25 Length=0.101 Units=m
New Line.LINE101_15 Bus1=101_15 Bus2=101_16 phases=3 Linecode=4c_.25 Length=0.20304 Units=m
New Line.LINE101_16 Bus1=101_16 Bus2=101_17 phases=3 Linecode=4c_.25 Length=0.28936 Units=m
New Line.LINE101_17 Bus1=101_17 Bus2=101_18 phases=3 Linecode=4c_.25 Length=0.37381 Units=m
New Line.LINE101_18 Bus1=101_18 Bus2=101_19 phases=3 Linecode=4c_.25 Length=0.4315 Units=m
New Line.LINE101_19 Bus1=101_19 Bus2=101_20 phases=3 Linecode=4c_.25 Length=0.38908 Units=m
New Line.LINE101_20 Bus1=101_20 Bus2=101_21 phases=3 Linecode=4c_.25 Length=0.42339 Units=m
New Line.LINE101_21 Bus1=101_21 Bus2=101_22 phases=3 Linecode=4c_.25 Length=0.36872 Units=m
New Line.LINE101_22 Bus1=101_22 Bus2=101_23 phases=3 Linecode=4c_.25 Length=0.32704 Units=m
New Line.LINE101_23 Bus1=101_23 Bus2=101_24 phases=3 Linecode=4c_.25 Length=0.41008 Units=m
New Line.LINE101_24 Bus1=101_24 Bus2=101_25 phases=3 Linecode=4c_.25 Length=0.40317 Units=m
New Line.LINE101_25 Bus1=101_25 Bus2=101_26 phases=3 Linecode=4c_.25 Length=0.44942 Units=m
New Line.LINE101_26 Bus1=101_26 Bus2=101_27 phases=3 Linecode=4c_.25 Length=0.2329 Units=m
New Line.LINE101_27 Bus1=101_27 Bus2=101_28 phases=3 Linecode=4c_.25 Length=0.3891 Units=m
New Line.LINE101_28 Bus1=101_28 Bus2=101_29 phases=3 Linecode=3c_240_SAC_XC Length=0.57277 Units=m
New Line.LINE101_29 Bus1=101_29 Bus2=101_30 phases=3 Linecode=3c_240_SAC_XC Length=6.5824 Units=m
New Line.LINE101_30 Bus1=101_30 Bus2=101_31 phases=3 Linecode=3c_240_SAC_XC Length=1.5394 Units=m
New Line.LINE101_31 Bus1=101_31 Bus2=101_32 phases=3 Linecode=3c_240_SAC_XC Length=0.30305 Units=m
New Line.LINE101_32 Bus1=101_32 Bus2=101_33 phases=3 Linecode=3c_240_SAC_XC Length=0.36586 Units=m
New Line.LINE101_33 Bus1=101_33 Bus2=101_34 phases=3 Linecode=3c_240_SAC_XC Length=0.46683 Units=m
New Line.LINE101_34 Bus1=101_34 Bus2=101_35 phases=3 Linecode=3c_240_SAC_XC Length=0.49314 Units=m
New Line.LINE101_35 Bus1=101_35 Bus2=101_36 phases=3 Linecode=3c_240_SAC_XC Length=1.287 Units=m
New Line.LINE101_36 Bus1=101_36 Bus2=101_37 phases=3 Linecode=3c_240_SAC_XC Length=0.67711 Units=m
New Line.LINE101_37 Bus1=101_37 Bus2=101_38 phases=3 Linecode=3c_240_SAC_XC Length=0.19671 Units=m
New Line.LINE101_38 Bus1=101_38 Bus2=101_39 phases=3 Linecode=3c_240_SAC_XC Length=0.11802 Units=m
New Line.LINE101_39 Bus1=101_39 Bus2=101_40 phases=3 Linecode=3c_240_SAC_XC Length=0.085999 Units=m
New Line.LINE101_40 Bus1=101_40 Bus2=101_41 phases=3 Linecode=3c_240_SAC_XC Length=0.072835 Units=m
New Line.LINE101_41 Bus1=101_41 Bus2=101_42 phases=3 Linecode=3c_240_SAC_XC Length=0.063152 Units=m
New Line.LINE101_42 Bus1=101_42 Bus2=101_43 phases=3 Linecode=3c_240_SAC_XC Length=0.067778 Units=m
New Line.LINE101_43 Bus1=101_43 Bus2=101_44 phases=3 Linecode=3c_240_SAC_XC Length=0.074632 Units=m
New Line.LINE101_44 Bus1=101_44 Bus2=101_45 phases=3 Linecode=3c_240_SAC_XC Length=0.075689 Units=m
New Line.LINE101_45 Bus1=101_45 Bus2=101_46 phases=3 Linecode=3c_240_SAC_XC Length=0.15166 Units=m
New Line.LINE101_46 Bus1=101_46 Bus2=101_47 phases=3 Linecode=3c_300_SAC_XC Length=0.12107 Units=m
New Line.LINE101_49 Bus1=101_47 Bus2=101_50 phases=3 Linecode=3c_300_SAC_XC Length=0.075181 Units=m
New Line.LINE101_57 Bus1=101_50 Bus2=101_58 phases=3 Linecode=3c_300_SAC_XC Length=0.075286 Units=m
New Line.LINE101_60 Bus1=101_58 Bus2=101_61 phases=3 Linecode=3c_300_SAC_XC Length=0.074674 Units=m
New Line.LINE101_63 Bus1=101_61 Bus2=101_64 phases=3 Linecode=3c_300_SAC_XC Length=0.075059 Units=m
New Line.LINE101_66 Bus1=101_64 Bus2=101_67 phases=3 Linecode=3c_300_SAC_XC Length=0.074953 Units=m
New Line.LINE101_69 Bus1=101_67 Bus2=101_70 phases=3 Linecode=3c_300_SAC_XC Length=1.9412 Units=m
New Line.LINE101_72 Bus1=101_70 Bus2=101_73 phases=3 Linecode=3c_300_SAC_XC Length=3.1523 Units=m
New Line.LINE101_75 Bus1=101_73 Bus2=101_76 phases=3 Linecode=3c_300_SAC_XC Length=1.4248 Units=m
New Line.LINE101_78 Bus1=101_76 Bus2=101_79 phases=3 Linecode=3c_300_SAC_XC Length=1.482 Units=m
New Line.LINE101_81 Bus1=101_79 Bus2=101_82 phases=3 Linecode=3c_300_SAC_XC Length=4.2359 Units=m
New Line.LINE101_84 Bus1=101_82 Bus2=101_85 phases=3 Linecode=3c_300_SAC_XC Length=4.0765 Units=m
New Line.LINE101_87 Bus1=101_85 Bus2=101_88 phases=3 Linecode=3c_300_SAC_XC Length=0.058249 Units=m
New Line.LINE101_90 Bus1=101_88 Bus2=101_91 phases=3 Linecode=3c_300_SAC_XC Length=0.063008 Units=m
New Line.LINE101_93 Bus1=101_91 Bus2=101_94 phases=3 Linecode=3c_300_SAC_XC Length=0.079006 Units=m
New Line.LINE101_96 Bus1=101_94 Bus2=101_97 phases=3 Linecode=3c_300_SAC_XC Length=0.631 Units=m
New Line.LINE101_99 Bus1=101_97 Bus2=101_100 phases=3 Linecode=3c_300_SAC_XC Length=0.761 Units=m
New Line.LINE101_102 Bus1=101_100 Bus2=101_103 phases=3 Linecode=3c_300_SAC_XC Length=0.36201 Units=m
New Line.LINE101_105 Bus1=101_103 Bus2=101_106 phases=3 Linecode=3c_300_SAC_XC Length=0.262 Units=m
New Line.LINE101_108 Bus1=101_106 Bus2=101_109 phases=3 Linecode=3c_300_SAC_XC Length=0.2146 Units=m
New Line.LINE101_111 Bus1=101_109 Bus2=101_112 phases=3 Linecode=3c_300_SAC_XC Length=0.1063 Units=m
New Line.LINE101_114 Bus1=101_112 Bus2=101_115 phases=3 Linecode=3c_300_SAC_XC Length=0.16568 Units=m
New Line.LINE101_117 Bus1=101_115 Bus2=101_118 phases=3 Linecode=3c_300_SAC_XC Length=0.24574 Units=m
New Line.LINE101_118 Bus1=101_116 Bus2=101_119 phases=3 Linecode=25_SAC_XC Length=6.4739 Units=m
New Line.LINE101_119 Bus1=101_116 Bus2=101_120 phases=3 Linecode=25_SAC_XC Length=9.0685 Units=m
New Line.LINE101_120 Bus1=101_116 Bus2=101_121 phases=3 Linecode=25_SAC_XC Length=9.0685 Units=m
New Line.LINE101_121 Bus1=101_116 Bus2=101_122 phases=3 Linecode=25_SAC_XC Length=9.0685 Units=m
New Line.LINE101_122 Bus1=101_116 Bus2=101_123 phases=3 Linecode=25_SAC_XC Length=9.0685 Units=m
New Line.LINE101_123 Bus1=101_116 Bus2=101_124 phases=3 Linecode=25_SAC_XC Length=9.0685 Units=m
New Line.LINE101_124 Bus1=101_116 Bus2=101_125 phases=3 Linecode=25_SAC_XC Length=9.0685 Units=m
New Line.LINE101_125 Bus1=101_116 Bus2=101_126 phases=3 Linecode=25_SAC_XC Length=9.0685 Units=m
New Line.LINE101_126 Bus1=101_116 Bus2=101_127 phases=3 Linecode=25_SAC_XC Length=9.0685 Units=m
New Line.LINE101_127 Bus1=101_116 Bus2=101_128 phases=3 Linecode=25_SAC_XC Length=9.0685 Units=m
New Line.LINE101_128 Bus1=101_116 Bus2=101_129 phases=3 Linecode=25_SAC_XC Length=9.0685 Units=m
New Line.LINE101_129 Bus1=101_116 Bus2=101_130 phases=3 Linecode=25_SAC_XC Length=9.0685 Units=m
New Line.LINE101_130 Bus1=101_118 Bus2=101_131 phases=3 Linecode=3c_300_SAC_XC Length=0.20904 Units=m
New Line.LINE101_131 Bus1=101_120 Bus2=101_132 phases=3 Linecode=25_SAC_XC Length=10.4913 Units=m
New Line.LINE101_132 Bus1=101_131 Bus2=101_133 phases=3 Linecode=3c_300_SAC_XC Length=0.14658 Units=m
New Line.LINE101_135 Bus1=101_133 Bus2=101_136 phases=3 Linecode=3c_300_SAC_XC Length=0.16498 Units=m
New Line.LINE101_138 Bus1=101_136 Bus2=101_139 phases=3 Linecode=3c_300_SAC_XC Length=0.15212 Units=m
New Line.LINE101_141 Bus1=101_139 Bus2=101_142 phases=3 Linecode=4c_300_SAC Length=0.17464 Units=m
New Line.LINE101_144 Bus1=101_142 Bus2=101_145 phases=3 Linecode=4c_300_SAC Length=0.15357 Units=m
New Line.LINE101_147 Bus1=101_145 Bus2=101_148 phases=3 Linecode=4c_300_SAC Length=0.20309 Units=m
New Line.LINE101_150 Bus1=101_148 Bus2=101_151 phases=3 Linecode=4c_300_SAC Length=4.8113 Units=m
New Line.LINE101_153 Bus1=101_151 Bus2=101_154 phases=3 Linecode=3c_300_SAC_XC Length=0.25871 Units=m
New Line.LINE101_156 Bus1=101_154 Bus2=101_157 phases=3 Linecode=3c_300_SAC_XC Length=0.07879 Units=m
New Line.LINE101_159 Bus1=101_157 Bus2=101_160 phases=3 Linecode=3c_300_SAC_XC Length=0.1589 Units=m
New Line.LINE101_162 Bus1=101_160 Bus2=101_163 phases=3 Linecode=3c_300_SAC_XC Length=0.13121 Units=m
New Line.LINE101_165 Bus1=101_163 Bus2=101_166 phases=3 Linecode=3c_300_SAC_XC Length=0.29565 Units=m
New Line.LINE101_168 Bus1=101_166 Bus2=101_169 phases=3 Linecode=3c_300_SAC_XC Length=0.18292 Units=m
New Line.LINE101_171 Bus1=101_169 Bus2=101_172 phases=3 Linecode=3c_300_SAC_XC Length=0.29908 Units=m
New Line.LINE101_174 Bus1=101_172 Bus2=101_175 phases=3 Linecode=3c_300_SAC_XC Length=0.27674 Units=m
New Line.LINE101_177 Bus1=101_175 Bus2=101_178 phases=3 Linecode=3c_300_SAC_XC Length=1.3341 Units=m
New Line.LINE101_180 Bus1=101_178 Bus2=101_181 phases=3 Linecode=3c_300_SAC_XC Length=1.4684 Units=m
New Line.LINE101_184 Bus1=101_181 Bus2=101_185 phases=3 Linecode=3c_300_SAC_XC Length=0.66343 Units=m
New Line.LINE101_188 Bus1=101_185 Bus2=101_189 phases=3 Linecode=3c_300_SAC_XC Length=1.2185 Units=m
New Line.LINE101_191 Bus1=101_189 Bus2=101_192 phases=3 Linecode=3c_300_SAC_XC Length=1.7239 Units=m
New Line.LINE101_195 Bus1=101_192 Bus2=101_196 phases=3 Linecode=3c_300_ASN Length=15.0222 Units=m
New Line.LINE101_199 Bus1=101_196 Bus2=101_200 phases=3 Linecode=3c_300_ASN Length=8.8983 Units=m
New Line.LINE101_203 Bus1=101_200 Bus2=101_204 phases=3 Linecode=3c_300_ASN Length=5.3712 Units=m
New Line.LINE101_207 Bus1=101_204 Bus2=101_208 phases=3 Linecode=3c_300_ASN Length=0.32965 Units=m
New Line.LINE101_214 Bus1=101_208 Bus2=101_215 phases=3 Linecode=3c_300_ASN Length=0.24574 Units=m
New Line.LINE101_221 Bus1=101_215 Bus2=101_222 phases=3 Linecode=3c_300_ASN Length=0.16105 Units=m
New Line.LINE101_228 Bus1=101_222 Bus2=101_229 phases=3 Linecode=3c_300_ASN Length=0.17376 Units=m
New Line.LINE101_234 Bus1=101_229 Bus2=101_235 phases=3 Linecode=3c_300_ASN Length=1.2629 Units=m
New Line.LINE101_240 Bus1=101_235 Bus2=101_241 phases=3 Linecode=25_SAC_XC Length=36.3848 Units=m
New Line.LINE101_241 Bus1=101_235 Bus2=101_242 phases=3 Linecode=25_SAC_XC Length=36.3848 Units=m
New Line.LINE101_242 Bus1=101_235 Bus2=101_243 phases=3 Linecode=25_SAC_XC Length=36.3848 Units=m
New Line.LINE101_243 Bus1=101_235 Bus2=101_244 phases=3 Linecode=25_SAC_XC Length=36.3848 Units=m
New Line.LINE101_244 Bus1=101_235 Bus2=101_245 phases=3 Linecode=25_SAC_XC Length=36.3848 Units=m
New Line.LINE101_245 Bus1=101_235 Bus2=101_246 phases=3 Linecode=25_SAC_XC Length=36.3848 Units=m
New Line.LINE101_246 Bus1=101_235 Bus2=101_247 phases=3 Linecode=25_SAC_XC Length=36.3848 Units=m
New Line.LINE101_247 Bus1=101_235 Bus2=101_248 phases=3 Linecode=25_SAC_XC Length=15.8156 Units=m
New Line.LINE101_Cmpd_0 Bus1=101_46 Bus2=101_116 phases=3 Linecode=3c_300_SAC_XC Length=47.323946 Units=m
