Test_Network/condensed/network_10/Feeder_5/LinesUnq_pruned.txt
New Line.LINE105_1 Bus1=105_1 Bus2=105_2 phases=3 Linecode=3c_300_SAC_XC Length=0.76971 Units=m
New Line.LINE105_2 Bus1=105_2 Bus2=105_3 phases=3 Linecode=3c_300_SAC_XC Length=0.071175 Units=m
New Line.LINE105_3 Bus1=105_3 Bus2=105_4 phases=3 Linecode=3c_300_SAC_XC Length=0.071281 Units=m
New Line.LINE105_4 Bus1=105_4 Bus2=105_5 phases=3 Linecode=3c_300_SAC_XC Length=0.070711 Units=m
New Line.LINE105_5 Bus1=105_5 Bus2=105_6 phases=3 Linecode=3c_300_SAC_XC Length=0.071029 Units=m
New Line.LINE105_6 Bus1=105_6 Bus2=105_7 phases=3 Linecode=3c_300_SAC_XC Length=0.071588 Units=m
New Line.LINE105_7 Bus1=105_7 Bus2=105_8 phases=3 Linecode=3c_300_SAC_XC Length=0.071309 Units=m
New Line.LINE105_8 Bus1=105_8 Bus2=105_9 phases=3 Linecode=3c_300_SAC_XC Length=0.071176 Units=m
New Line.LINE105_9 Bus1=105_9 Bus2=105_10 phases=3 Linecode=3c_300_SAC_XC Length=0.070456 Units=m
New Line.LINE105_10 Bus1=105_10 Bus2=105_11 phases=3 Linecode=3c_300_SAC_XC Length=0.73721 Units=m
New Line.LINE105_11 Bus1=105_11 Bus2=105_12 phases=3 Linecode=3c_300_SAC_XC Length=1.7693 Units=m
New Line.LINE105_12 Bus1=105_12 Bus2=105_13 phases=3 Linecode=3c_300_SAC_XC Length=0.18318 Units=m
New Line.LINE105_13 Bus1=105_13 Bus2=105_14 phases=3 Linecode=3c_300_SAC_XC Length=0.18253 Units=m
New Line.LINE105_14 Bus1=105_14 Bus2=105_15 phases=3 Linecode=3c_300_SAC_XC Length=0.18246 Units=m
New Line.LINE105_15 Bus1=105_15 Bus2=105_16 phases=3 Linecode=3c_300_SAC_XC Length=0.18308 Units=m
New Line.LINE105_16 Bus1=105_16 Bus2=105_17 phases=3 Linecode=3c_300_SAC_XC Length=0.18217 Units=m
New Line.LINE105_17 Bus1=105_17 Bus2=105_18 phases=3 Linecode=3c_300_SAC_XC Length=0.18318 Units=m
New Line.LINE105_18 Bus1=105_18 Bus2=105_19 phases=3 Linecode=3c_300_SAC_XC Length=0.18301 Units=m
New Line.LINE105_19 Bus1=105_19 Bus2=105_20 phases=3 Linecode=3c_300_SAC_XC Length=0.1818 Units=m
New Line.LINE105_20 Bus1=105_20 Bus2=105_21 phases=3 Linecode=3c_300_SAC_XC Length=1.3146 Units=m
New Line.LINE105_21 Bus1=105_21 Bus2=105_22 phases=3 Linecode=3c_300_SAC_XC Length=1.5617 Units=m
New Line.LINE105_22 Bus1=105_22 Bus2=105_23 phases=3 Linecode=3c_300_SAC_XC Length=0.88888 Units=m
New Line.LINE105_23 Bus1=105_23 Bus2=105_24 phases=3 Linecode=3c_300_SAC_XC Length=1.1934 Units=m
New Line.LINE105_24 Bus1=105_24 Bus2=105_25 phases=3 Linecode=3c_300_SAC_XC Length=0.85425 Units=m
New Line.LINE105_25 Bus1=105_25 Bus2=105_26 phases=3 Linecode=3c_300_SAC_XC Length=1.6709 Units=m
New Line.LINE105_26 Bus1=105_26 Bus2=105_27 phases=3 Linecode=3c_300_SAC_XC Length=1.2943 Units=m
New Line.LINE105_27 Bus1=105_27 Bus2=105_28 phases=3 Linecode=3c_300_SAC_XC Length=7.4299 Units=m
New Line.LINE105_28 Bus1=105_28 Bus2=105_29 phases=3 Linecode=3c_300_SAC_XC Length=9.8894 Units=m
New Line.LINE105_29 Bus1=105_29 Bus2=105_30 phases=3 Linecode=4c_300_SAC Length=2.6486 Units=m
New Line.LINE105_30 Bus1=105_30 Bus2=105_31 phases=3 Linecode=4c_300_SAC Length=0.16603 Units=m
New Line.LINE105_31 Bus1=105_31 Bus2=105_32 phases=3 Linecode=4c_300_SAC Length=0.11455 Units=m
New Line.LINE105_32 Bus1=105_32 Bus2=105_33 phases=3 Linecode=4c_300_SAC Length=0.14459 Units=m
New Line.LINE105_33 Bus1=105_33 Bus2=105_34 phases=3 Linecode=4c_300_SAC Length=0.049738 Units=m
New Line.LINE105_34 Bus1=105_34 Bus2=105_35 phases=3 Linecode=4c_300_SAC Length=0.098434 Units=m
New Line.LINE105_35 Bus1=105_35 Bus2=105_36 phases=3 Linecode=4c_300_SAC Length=0.13223 Units=m
New Line.LINE105_36 Bus1=105_36 Bus2=105_37 phases=3 Linecode=4c_300_SAC Length=0.067066 Units=m
New Line.LINE105_37 Bus1=105_37 Bus2=105_38 phases=3 Linecode=4c_300_SAC Length=0.082202 Units=m
New Line.LINE105_38 Bus1=105_38 Bus2=105_39 phases=3 Linecode=4c_300_SAC Length=0.092972 Units=m
New Line.LINE105_39 Bus1=105_39 Bus2=105_40 phases=3 Linecode=4c_300_SAC Length=0.092591 Units=m
New Line.LINE105_40 Bus1=105_40 Bus2=105_41 phases=3 Linecode=4c_300_SAC Length=0.11341 Units=m
New Line.LINE105_41 Bus1=105_41 Bus2=105_42 phases=3 Linecode=4c_300_SAC Length=0.13406 Units=m
New Line.LINE105_42 Bus1=105_42 Bus2=105_43 phases=3 Linecode=4c_300_SAC Length=0.14982 Units=m
New Line.LINE105_43 Bus1=105_43 Bus2=105_44 phases=3 Linecode=4c_300_SAC Length=0.13252 Units=m
New Line.LINE105_44 Bus1=105_44 Bus2=105_45 phases=3 Linecode=4c_300_SAC Length=0.57714 Units=m
New Line.LINE105_45 Bus1=105_45 Bus2=105_46 phases=3 Linecode=4c_300_SAC Length=0.563 Units=m
New Line.LINE105_46 Bus1=105_46 Bus2=105_47 phases=3 Linecode=4c_300_SAC Length=0.45674 Units=m
New Line.LINE105_47 Bus1=105_47 Bus2=105_48 phases=3 Linecode=4c_300_SAC Length=0.3907 Units=m
New Line.LINE105_48 Bus1=105_48 Bus2=105_49 phases=3 Linecode=4c_.5 Length=0.2101 Units=m
New Line.LINE105_49 Bus1=105_49 Bus2=105_50 phases=3 Linecode=4c_.5 Length=0.26337 Units=m
New Line.LINE105_50 Bus1=105_50 Bus2=105_51 phases=3 Linecode=4c_.5 Length=6.2219 Units=m
New Line.LINE105_51 Bus1=105_51 Bus2=105_52 phases=3 Linecode=4c_.5 Length=0.039925 Units=m
New Line.LINE105_52 Bus1=105_52 Bus2=105_53 phases=3 Linecode=4c_.5 Length=0.044102 Units=m
New Line.LINE105_53 Bus1=105_53 Bus2=105_54 phases=3 Linecode=4c_.5 Length=0.036797 Units=m
New Line.LINE105_54 Bus1=105_54 Bus2=105_55 phases=3 Linecode=4c_.5 Length=0.037162 Units=m
New Line.LINE105_55 Bus1=105_55 Bus2=105_56 phases=3 Linecode=4c_.5 Length=0.031321 Units=m
New Line.LINE105_56 Bus1=105_56 Bus2=105_57 phases=3 Linecode=4c_.5 Length=0.042013 Units=m
New Line.LINE105_57 Bus1=105_57 Bus2=105_58 phases=3 Linecode=4c_.5 Length=0.05824 Units=m
New Line.LINE105_58 Bus1=105_58 Bus2=105_59 phases=3 Linecode=4c_.5 Length=3.4854 Units=m
New Line.LINE105_60 Bus1=105_59 Bus2=105_61 phases=3 Linecode=4c_.5 Length=2.0964 Units=m
New Line.LINE105_62 Bus1=105_61 Bus2=105_63 phases=3 Linecode=4c_.5 Length=0.92946 Units=m
New Line.LINE105_65 Bus1=105_63 Bus2=105_66 phases=3 Linecode=4c_.5 Length=0.29706 Units=m
New Line.LINE105_68 Bus1=105_66 Bus2=105_69 phases=3 Linecode=4c_.5 Length=8.4739 Units=m
New Line.LINE105_71 Bus1=105_69 Bus2=105_72 phases=3 Linecode=4c_.5 Length=6.959 Units=m
New Line.LINE105_74 Bus1=105_72 Bus2=105_75 phases=3 Linecode=4c_.5 Length=8.804 Units=m
New Line.LINE105_78 Bus1=105_75 Bus2=105_79 phases=3 Linecode=4c_.5 Length=6.9545 Units=m
New Line.LINE105_82 Bus1=105_79 Bus2=105_83 phases=3 Linecode=4c_.5 Length=0.24571 Units=m
New Line.LINE105_86 Bus1=105_83 Bus2=105_87 phases=3 Linecode=4c_.5 Length=0.49953 Units=m
New Line.LINE105_91 Bus1=105_87 Bus2=105_92 phases=3 Linecode=4c_.5 Length=0.35324 Units=m
New Line.LINE105_95 Bus1=105_92 Bus2=105_96 phases=3 Linecode=4c_.5 Length=0.23411 Units=m
New Line.LINE105_98 Bus1=105_96 Bus2=105_99 phases=3 Linecode=4c_.5 Length=0.23087 Units=m
New Line.LINE105_101 Bus1=105_99 Bus2=105_102 phases=3 Linecode=4c_.5 Length=0.25 Units=m
New Line.LINE105_104 Bus1=105_102 Bus2=105_105 phases=3 Linecode=4c_.5 Length=0.19606 Units=m
New Line.LINE105_107 Bus1=105_105 Bus2=105_108 phases=3 Linecode=4c_.5 Length=0.78995 Units=m
New Line.LINE105_110 Bus1=105_108 Bus2=105_111 phases=3 Linecode=4c_.5 Length=0.75667 Units=m
New Line.LINE105_113 Bus1=105_111 Bus2=105_114 phases=3 Linecode=4c_.5 Length=1.8361 Units=m
New Line.LINE105_116 Bus1=105_114 Bus2=105_117 phases=3 Linecode=3c_300_SAC_ASN Length=9.9833 Units=m
New Line.LINE105_119 Bus1=105_117 Bus2=105_120 phases=3 Linecode=4c_.5 Length=3.9504 Units=m
New Line.LINE105_121 Bus1=105_120 Bus2=105_122 phases=3 Linecode=4c_.5 Length=15.3344 Units=m
New Line.LINE105_123 Bus1=105_122 Bus2=105_124 phases=3 Linecode=4c_.5 Length=5.435 Units=m
New Line.LINE105_125 Bus1=105_124 Bus2=105_126 phases=3 Linecode=4c_.5 Length=4.4631 Units=m
New Line.LINE105_127 Bus1=105_126 Bus2=105_128 phases=3 Linecode=4c_.5 Length=5.8667 Units=m
New Line.LINE105_129 Bus1=105_128 Bus2=105_130 phases=3 Linecode=4c_.5 Length=12.4059 Units=m
New Line.LINE105_131 Bus1=105_130 Bus2=105_132 phases=3 Linecode=4c_.5 Length=0.75942 Units=m
New Line.LINE105_133 Bus1=105_132 Bus2=105_134 phases=3 Linecode=4c_.5 Length=0.4209 Units=m
New Line.LINE105_135 Bus1=105_134 Bus2=105_136 phases=3 Linecode=4c_.5 Length=0.37448 Units=m
New Line.LINE105_137 Bus1=105_136 Bus2=105_138 phases=3 Linecode=4c_.5 Length=0.27775 Units=m
New Line.LINE105_139 Bus1=105_138 Bus2=105_140 phases=3 Linecode=4c_.5 Length=0.21153 Units=m
New Line.LINE105_141 Bus1=105_140 Bus2=105_142 phases=3 Linecode=4c_.5 Length=0.25155 Units=m
New Line.LINE105_143 Bus1=105_142 Bus2=105_144 phases=3 Linecode=4c_.5 Length=7.6159 Units=m
New Line.LINE105_144 Bus1=105_144 Bus2=105_145 phases=3 Linecode=4c_.5 Length=0.30265 Units=m
New Line.LINE105_145 Bus1=105_145 Bus2=105_146 phases=3 Linecode=4c_300_SAC Length=0.51185 Units=m
New Line.LINE105_146 Bus1=105_146 Bus2=105_147 phases=3 Linecode=4c_120_SAC Length=0.15692 Units=m
New Line.LINE105_148 Bus1=105_147 Bus2=105_149 phases=3 Linecode=4c_120_SAC Length=0.065369 Units=m
New Line.LINE105_150 Bus1=105_149 Bus2=105_151 phases=3 Linecode=4c_120_SAC Length=0.050249 Units=m
New Line.LINE105_152 Bus1=105_151 Bus2=105_153 phases=3 Linecode=4c_120_SAC Length=0.062201 Units=m
New Line.LINE105_154 Bus1=105_153 Bus2=105_155 phases=3 Linecode=4c_120_SAC Length=0.098955 Units=m
New Line.LINE105_156 Bus1=105_155 Bus2=105_157 phases=3 Linecode=4c_120_SAC Length=0.087367 Units=m
New Line.LINE105_158 Bus1=105_157 Bus2=105_159 phases=3 Linecode=4c_120_SAC Length=0.28271 Units=m
New Line.LINE105_160 Bus1=105_159 Bus2=105_161 phases=3 Linecode=4c_120_SAC Length=0.11353 Units=m
New Line.LINE105_162 Bus1=105_161 Bus2=105_163 phases=3 Linecode=4c_120_SAC Length=0.13995 Units=m
New Line.LINE105_164 Bus1=105_163 Bus2=105_165 phases=3 Linecode=4c_120_SAC Length=0.55462 Units=m
New Line.LINE105_166 Bus1=105_165 Bus2=105_167 phases=3 Linecode=4c_120_SAC Length=0.087864 Units=m
New Line.LINE105_168 Bus1=105_167 Bus2=105_169 phases=3 Linecode=4c_120_SAC Length=0.071176 Units=m
New Line.LINE105_172 Bus1=105_169 Bus2=105_173 phases=3 Linecode=4c_120_SAC Length=0.072007 Units=m
New Line.LINE105_176 Bus1=105_173 Bus2=105_177 phases=3 Linecode=4c_120_SAC Length=0.086208 Units=m
New Line.LINE105_180 Bus1=105_177 Bus2=105_181 phases=3 Linecode=4c_120_SAC Length=0.11563 Units=m
New Line.LINE105_185 Bus1=105_181 Bus2=105_186 phases=3 Linecode=4c_120_SAC Length=0.12542 Units=m
New Line.LINE105_190 Bus1=105_186 Bus2=105_191 phases=3 Linecode=4c_120_SAC Length=0.14361 Units=m
New Line.LINE105_197 Bus1=105_191 Bus2=105_198 phases=3 Linecode=4c_120_SAC Length=0.17407 Units=m
New Line.LINE105_204 Bus1=105_198 Bus2=105_205 phases=3 Linecode=4c_120_SAC Length=0.34636 Units=m
New Line.LINE105_211 Bus1=105_205 Bus2=105_212 phases=3 Linecode=4c_120_SAC Length=0.21915 Units=m
New Line.LINE105_218 Bus1=105_212 Bus2=105_219 phases=3 Linecode=4c_.12 Length=0.99683 Units=m
New Line.LINE105_225 Bus1=105_219 Bus2=105_226 phases=3 Linecode=4c_.12 Length=0.75397 Units=m
New Line.LINE105_232 Bus1=105_226 Bus2=105_233 phases=3 Linecode=4c_.12 Length=0.62514 Units=m
New Line.LINE105_238 Bus1=105_233 Bus2=105_239 phases=3 Linecode=4c_.12 Length=6.7129 Units=m
New Line.LINE105_245 Bus1=105_239 Bus2=105_246 phases=3 Linecode=4c_.12 Length=2.5415 Units=m
New Line.LINE105_252 Bus1=105_246 Bus2=105_253 phases=3 Linecode=4c_.12 Length=6.98 Units=m
New Line.LINE105_260 Bus1=105_253 Bus2=105_261 phases=3 Linecode=4c_.12 Length=0.84866 Units=m
New Line.LINE105_265 Bus1=105_261 Bus2=105_266 phases=3 Linecode=185_SAC_PC Length=0.945 Units=m
New Line.LINE105_270 Bus1=105_266 Bus2=105_271 phases=3 Linecode=25_SAC_XC Length=22.0878 Units=m
New Line.LINE105_271 Bus1=105_266 Bus2=105_272 phases=3 Linecode=25_SAC_XC Length=17.8821 Units=m
New Line.LINE105_272 Bus1=105_266 Bus2=105_273 phases=3 Linecode=25_SAC_XC Length=17.8821 Units=m
New Line.LINE105_273 Bus1=105_266 Bus2=105_274 phases=3 Linecode=25_SAC_XC Length=17.8821 Units=m
New Line.LINE105_274 Bus1=105_266 Bus2=105_275 phases=3 Linecode=25_SAC_XC Length=17.8821 Units=m
New Line.LINE105_275 Bus1=105_266 Bus2=105_276 phases=3 Linecode=25_SAC_XC Length=17.8821 Units=m
New Line.LINE105_297 Bus1=105_293 Bus2=105_298 phases=3 Linecode=25_SAC_XC Length=16.7103 Units=m
New Line.LINE105_298 Bus1=105_293 Bus2=105_299 phases=3 Linecode=25_SAC_XC Length=16.7103 Units=m
New Line.LINE105_299 Bus1=105_293 Bus2=105_300 phases=3 Linecode=25_SAC_XC Length=16.7103 Units=m
New Line.LINE105_300 Bus1=105_293 Bus2=105_301 phases=3 Linecode=25_SAC_XC Length=16.7103 Units=m
New Line.LINE105_301 Bus1=105_293 Bus2=105_302 phases=3 Linecode=4c_.12 Length=10.4419 Units=m
New Line.LINE105_306 Bus1=105_302 Bus2=105_307 phases=3 Linecode=4c_.12 Length=4.5021 Units=m
New Line.LINE105_311 Bus1=105_307 Bus2=105_312 phases=3 Linecode=25_SAC_XC Length=7.4638 Units=m
New Line.LINE105_Cmpd_0 Bus1=105_261 Bus2=105_293 phases=3 Linecode=4c_.12 Length=25.16154 Units=m
